data_image0
_chemical_formula_structural       Se4PdSe5PdSePdSePdSePdSe5PdSe4
_chemical_formula_sum              "Se21 Pd6"
_cell_length_a       8.7
_cell_length_b       8.7
_cell_length_c       26
_cell_angle_alpha    90
_cell_angle_beta     90
_cell_angle_gamma    90

_space_group_name_H-M_alt    "P 1"
_space_group_IT_number       1

loop_
  _space_group_symop_operation_xyz
  'x, y, z'

loop_
  _atom_site_type_symbol
  _atom_site_label
  _atom_site_symmetry_multiplicity
  _atom_site_fract_x
  _atom_site_fract_y
  _atom_site_fract_z
  _atom_site_occupancy
  Se  Se1       1.0  0.19701  0.80299  0.39896  1.0000
  Se  Se2       1.0  0.50000  0.79115  0.40249  1.0000
  Se  Se3       1.0  0.80299  0.80299  0.39896  1.0000
  Se  Se4       1.0  0.20885  0.50000  0.40249  1.0000
  Pd  Pd1       1.0  0.50000  0.50000  0.40157  1.0000
  Se  Se5       1.0  0.79115  0.50000  0.40249  1.0000
  Se  Se6       1.0  0.19701  0.19701  0.39896  1.0000
  Se  Se7       1.0  0.50000  0.20885  0.40249  1.0000
  Se  Se8       1.0  0.80299  0.19701  0.39896  1.0000
  Se  Se9       1.0  0.20789  0.79211  0.50000  1.0000
  Pd  Pd2       1.0  0.50000  0.80223  0.50000  1.0000
  Se  Se10      1.0  0.79211  0.79211  0.50000  1.0000
  Pd  Pd3       1.0  0.19777  0.50000  0.50000  1.0000
  Se  Se11      1.0  0.50000  0.50000  0.50000  1.0000
  Pd  Pd4       1.0  0.80223  0.50000  0.50000  1.0000
  Se  Se12      1.0  0.20789  0.20789  0.50000  1.0000
  Pd  Pd5       1.0  0.50000  0.19777  0.50000  1.0000
  Se  Se13      1.0  0.79211  0.20789  0.50000  1.0000
  Se  Se14      1.0  0.19701  0.80299  0.60104  1.0000
  Se  Se15      1.0  0.50000  0.79115  0.59751  1.0000
  Se  Se16      1.0  0.80299  0.80299  0.60104  1.0000
  Se  Se17      1.0  0.20885  0.50000  0.59751  1.0000
  Pd  Pd6       1.0  0.50000  0.50000  0.59843  1.0000
  Se  Se18      1.0  0.79115  0.50000  0.59751  1.0000
  Se  Se19      1.0  0.19701  0.19701  0.60104  1.0000
  Se  Se20      1.0  0.50000  0.20885  0.59751  1.0000
  Se  Se21      1.0  0.80299  0.19701  0.60104  1.0000
